Version 4
SHEET 1 2132 680
WIRE -112 48 -192 48
WIRE 208 48 -112 48
WIRE 528 48 288 48
WIRE -112 96 -112 48
WIRE 0 96 -32 96
WIRE -192 112 -192 48
WIRE 528 112 528 48
WIRE 320 144 64 144
WIRE -192 224 -192 192
WIRE 0 224 0 192
WIRE 0 224 -192 224
WIRE 176 224 0 224
WIRE 320 224 320 144
WIRE 416 224 400 224
WIRE 528 224 528 192
WIRE 528 224 416 224
WIRE 176 304 176 224
WIRE 272 304 176 304
WIRE 416 304 416 224
WIRE 416 304 352 304
FLAG -192 224 0
SYMBOL voltage -192 96 R0
WINDOW 123 0 0 Left 0
WINDOW 39 0 0 Left 0
SYMATTR InstName V1
SYMATTR Value 4
SYMBOL res 304 32 R90
WINDOW 0 0 56 VBottom 2
WINDOW 3 32 56 VTop 2
SYMATTR InstName R1
SYMATTR Value 100
SYMBOL res 512 96 R0
SYMATTR InstName R3
SYMATTR Value 25
SYMBOL res 416 208 R90
WINDOW 0 0 56 VBottom 2
WINDOW 3 32 56 VTop 2
SYMATTR InstName R4
SYMATTR Value 220
SYMBOL res 368 288 R90
WINDOW 0 0 56 VBottom 2
WINDOW 3 32 56 VTop 2
SYMATTR InstName R5
SYMATTR Value 100
SYMBOL npn 64 96 M0
SYMATTR InstName Q1
SYMATTR Value PBSS4350T
SYMBOL res -16 80 R90
WINDOW 0 0 56 VBottom 2
WINDOW 3 32 56 VTop 2
SYMATTR InstName R2
SYMATTR Value 10
TEXT -224 344 Left 2 !.tran 0 1 0
TEXT -832 432 Left 2 !.MODEL PBSS4350T NPN(IS=5E-15 NF=1.002 ISE=2E-14 NE=1.60 BF=220 IKF=1.8 VAF=80 NR=1.0 ISC=1E-14 NC=1.20 BR=8 IKR=0.5 VAR=12 RB=18 RBM=1.5 IRB=0.01 RE=0.04 RC=0.08 CJE=10E-12 VJE=0.75 MJE=0.33 CJC=2.5E-12 VJC=0.65 MJC=0.35 XCJC=0.75 TF=1.0E-9 XTF=3.0 VTF=5.0 ITF=0.8 TR=50E-9 XTB=1.60 EG=1.11 XTI=3.0 FC=0.5)
