Version 4
SHEET 1 1468 680
WIRE 80 32 0 32
WIRE 160 32 144 32
WIRE 192 32 160 32
WIRE 304 32 272 32
WIRE 352 32 304 32
WIRE 448 32 432 32
WIRE 0 48 0 32
WIRE 448 224 448 32
FLAG 0 128 0
FLAG 448 224 0
FLAG 304 96 0
FLAG 160 96 0
SYMBOL voltage 0 32 R0
WINDOW 123 0 0 Left 0
WINDOW 39 0 0 Left 0
SYMATTR InstName V1
SYMATTR Value 60
SYMBOL diode 80 48 R270
WINDOW 0 32 32 VTop 2
WINDOW 3 0 32 VBottom 2
SYMATTR InstName D1
SYMBOL res 288 16 R90
WINDOW 0 0 56 VBottom 2
WINDOW 3 32 56 VTop 2
SYMATTR InstName R2
SYMATTR Value 10k
SYMBOL cap 288 32 R0
SYMATTR InstName C1
SYMATTR Value 1n, ic=0
SYMBOL res 448 16 R90
WINDOW 0 0 56 VBottom 2
WINDOW 3 32 56 VTop 2
SYMATTR InstName R3
SYMATTR Value 1
SYMBOL cap 144 32 R0
SYMATTR InstName C2
SYMATTR Value 1n, ic=0
TEXT 574 320 Left 2 !.tran 0 1 0
TEXT 584 360 Left 2 !.model d d ron=0 roff=1meg vfwd=0.4 ilimit=100u
