Version 4
SHEET 1 880 680
WIRE 272 -48 240 -48
WIRE 160 48 160 -48
WIRE 160 48 80 48
WIRE 208 48 160 48
WIRE 352 48 352 -48
WIRE 352 48 288 48
WIRE 528 48 352 48
WIRE 80 112 80 48
WIRE 528 112 528 48
WIRE 80 224 80 192
WIRE 176 224 80 224
WIRE 224 224 176 224
WIRE 320 224 304 224
WIRE 416 224 400 224
WIRE 528 224 528 192
WIRE 528 224 416 224
WIRE 176 304 176 224
WIRE 272 304 176 304
WIRE 416 304 416 224
WIRE 416 304 352 304
FLAG 80 224 0
SYMBOL voltage 80 96 R0
WINDOW 123 0 0 Left 0
WINDOW 39 0 0 Left 0
SYMATTR InstName V1
SYMATTR Value 4
SYMBOL res 304 32 R90
WINDOW 0 0 56 VBottom 2
WINDOW 3 32 56 VTop 2
SYMATTR InstName R1
SYMATTR Value 100
SYMBOL res 368 -64 R90
WINDOW 0 0 56 VBottom 2
WINDOW 3 32 56 VTop 2
SYMATTR InstName R2
SYMATTR Value 68
SYMBOL voltage 144 -48 R270
WINDOW 0 -32 56 VBottom 2
WINDOW 3 32 56 VTop 2
WINDOW 123 0 0 Left 0
WINDOW 39 0 0 Left 0
SYMATTR InstName V2
SYMATTR Value .7
SYMBOL res 512 96 R0
SYMATTR InstName R3
SYMATTR Value 25
SYMBOL voltage 320 224 R90
WINDOW 0 32 56 VTop 2
WINDOW 3 -32 56 VBottom 2
WINDOW 123 0 0 Left 0
WINDOW 39 0 0 Left 0
SYMATTR InstName V3
SYMATTR Value .7
SYMBOL res 416 208 R90
WINDOW 0 0 56 VBottom 2
WINDOW 3 32 56 VTop 2
SYMATTR InstName R4
SYMATTR Value 68
SYMBOL res 368 288 R90
WINDOW 0 0 56 VBottom 2
WINDOW 3 32 56 VTop 2
SYMATTR InstName R5
SYMATTR Value 100
TEXT 46 346 Left 2 !.tran 0 1 0
