Version 4
SHEET 1 880 680
WIRE -80 48 -192 48
WIRE 208 48 -80 48
WIRE 528 48 288 48
WIRE -80 96 -80 48
WIRE -192 112 -192 48
WIRE 528 112 528 48
WIRE 320 144 64 144
WIRE -192 224 -192 192
WIRE 0 224 0 192
WIRE 0 224 -192 224
WIRE 176 224 0 224
WIRE 320 224 320 144
WIRE 416 224 400 224
WIRE 528 224 528 192
WIRE 528 224 416 224
WIRE 176 304 176 224
WIRE 272 304 176 304
WIRE 416 304 416 224
WIRE 416 304 352 304
FLAG -192 224 0
SYMBOL voltage -192 96 R0
WINDOW 123 0 0 Left 0
WINDOW 39 0 0 Left 0
SYMATTR InstName V1
SYMATTR Value 4
SYMBOL res 304 32 R90
WINDOW 0 0 56 VBottom 2
WINDOW 3 32 56 VTop 2
SYMATTR InstName R1
SYMATTR Value 330
SYMBOL res 512 96 R0
SYMATTR InstName R3
SYMATTR Value 25
SYMBOL res 416 208 R90
WINDOW 0 0 56 VBottom 2
WINDOW 3 32 56 VTop 2
SYMATTR InstName R4
SYMATTR Value 82
SYMBOL res 368 288 R90
WINDOW 0 0 56 VBottom 2
WINDOW 3 32 56 VTop 2
SYMATTR InstName R5
SYMATTR Value 330
SYMBOL npn 64 96 M0
SYMATTR InstName Q1
SYMATTR Value QSX2
SYMBOL res 16 80 R90
WINDOW 0 0 56 VBottom 2
WINDOW 3 32 56 VTop 2
SYMATTR InstName R2
SYMATTR Value 10
TEXT -226 346 Left 2 !.tran 0 1 0
