Version 4
SHEET 1 916 680
WIRE -272 80 -336 80
WIRE -96 80 -208 80
WIRE -64 80 -96 80
WIRE 80 80 32 80
WIRE 96 80 80 80
WIRE 208 80 176 80
WIRE 224 80 208 80
WIRE 448 80 224 80
WIRE 560 80 448 80
WIRE -336 160 -336 80
WIRE -96 160 -96 80
WIRE 16 224 16 128
WIRE 128 224 16 224
WIRE 224 224 224 80
WIRE 224 224 208 224
WIRE -336 304 -336 240
WIRE -96 304 -96 224
WIRE -96 304 -336 304
WIRE 560 304 560 240
WIRE 560 304 -96 304
FLAG 560 304 0
FLAG 80 80 v+
FLAG 208 80 v-
FLAG 448 144 0
SYMBOL res 80 96 R270
WINDOW 0 32 56 VTop 2
WINDOW 3 0 56 VBottom 2
SYMATTR InstName R1
SYMATTR Value 10k
SYMBOL res 544 64 R0
SYMATTR InstName R2
SYMATTR Value 1
SYMBOL nmos -64 128 R270
SYMATTR InstName M1
SYMATTR Value DMZ6012E
SYMBOL res 224 208 R90
WINDOW 0 0 56 VBottom 2
WINDOW 3 32 56 VTop 2
SYMATTR InstName R3
SYMATTR Value 100
SYMBOL cap 432 80 R0
SYMATTR InstName C1
SYMATTR Value 1µ, ic=0
SYMBOL voltage 560 144 R0
WINDOW 123 0 0 Left 0
WINDOW 39 0 0 Left 0
SYMATTR InstName V1
SYMATTR Value 120
SYMBOL res 656 208 R0
SYMATTR InstName R4
SYMATTR Value 20k
SYMBOL voltage -336 144 R0
WINDOW 123 0 0 Left 0
WINDOW 39 0 0 Left 0
SYMATTR InstName V3
SYMATTR Value 70
SYMBOL diode -272 96 R270
WINDOW 0 32 32 VTop 2
WINDOW 3 0 32 VBottom 2
SYMATTR InstName D2
SYMATTR Value MMSD4148
SYMBOL zener -80 224 R180
WINDOW 0 24 64 Left 2
WINDOW 3 24 0 Left 2
SYMATTR InstName D3
SYMATTR Value KDZLV75
SYMATTR Description Diode
SYMATTR Type diode
TEXT -88 328 Left 2 !.tran 0 1 0
TEXT 632 88 Left 2 ;I(R1)*(v(v+)-v(v-))
TEXT -424 400 Left 2 !.model d d ron=0 roff=1meg vfwd=0 ilimit=100u
TEXT -448 456 Left 2 !.model DMZ6012E VDMOS(Rg=100 Vto=-2.2 Rd=25 Rs=5 Rb=40 Kp=0.1 mtriode=1 Cgdmax=20p Cgdmin=2p Cgs=60p Cjo=50p Vds=600 Ron=60 Qg=1.5n)
