Version 4
SHEET 1 912 680
WIRE 864 32 688 32
WIRE 688 96 688 32
WIRE 144 176 0 176
WIRE 240 176 208 176
WIRE 288 176 240 176
WIRE 416 176 352 176
WIRE 480 176 416 176
WIRE 528 176 480 176
WIRE 640 176 528 176
WIRE 0 320 0 176
WIRE 480 320 480 176
WIRE 480 320 0 320
FLAG 240 176 cccv_in
FLAG 416 176 cccv_out
FLAG 688 192 0
FLAG 528 240 0
FLAG 864 192 0
SYMBOL Digital\\and 176 96 R0
WINDOW 3 -38 120 Left 2
SYMATTR InstName A1
SYMATTR Value ref=3.6 rout=.1m vhigh=10 td=30
SYMBOL diode 288 192 R270
WINDOW 0 32 32 VTop 2
WINDOW 3 0 32 VBottom 2
SYMATTR InstName D1
SYMBOL nmos 640 96 R0
SYMATTR InstName M1
SYMATTR Value AON6560
SYMBOL cap 512 176 R0
SYMATTR InstName C1
SYMATTR Value 1n ic=0
SYMBOL voltage 864 96 R0
WINDOW 123 0 0 Left 0
WINDOW 39 0 0 Left 0
SYMATTR InstName V1
SYMATTR Value 10
SYMBOL res 880 128 R180
WINDOW 0 36 76 Left 2
WINDOW 3 36 40 Left 2
SYMATTR InstName R1
SYMATTR Value .1
TEXT 32 288 Left 2 !.model d d ron=.1m roff=1meg vfwd=0.0 ilimit=1
TEXT 30 304 Left 2 !.tran 0 1u 0
